*SPEF "ieee 1481-1999"
*DESIGN "gcd"
*DATE "03:59:24 Saturday May 03, 2025"
*VENDOR "The OpenROAD Project"
*PROGRAM "OpenROAD"
*VERSION "HEAD-HASH-NOTFOUND"
*DESIGN_FLOW "NAME_SCOPE LOCAL" "PIN_CAP NONE"
*DIVIDER /
*DELIMITER :
*BUS_DELIMITER []
*T_UNIT 1 NS
*C_UNIT 1 PF
*R_UNIT 1 OHM
*L_UNIT 1 HENRY

*NAME_MAP
*1 _000_
*2 _001_
*3 _002_
*4 _003_
*5 _004_
*6 _005_
*7 _006_
*8 _007_
*9 _008_
*10 _009_
*11 _010_
*12 _011_
*13 _012_
*14 _013_
*15 _014_
*16 _015_
*17 _016_
*18 _017_
*19 _018_
*20 _019_
*21 _020_
*22 _021_
*23 _022_
*24 _023_
*25 _024_
*26 _025_
*27 _026_
*28 _027_
*29 _028_
*30 _029_
*31 _030_
*32 _031_
*33 _032_
*34 _033_
*35 _034_
*36 _035_
*37 _036_
*38 _037_
*39 _038_
*40 _039_
*41 _040_
*42 _041_
*43 _042_
*44 _043_
*45 _044_
*46 _045_
*47 _046_
*48 _047_
*49 _048_
*50 _049_
*51 _050_
*52 _051_
*53 _052_
*54 _053_
*55 _054_
*56 _055_
*57 _056_
*58 _057_
*59 _058_
*60 _059_
*61 _060_
*62 _061_
*63 _062_
*64 _063_
*65 _064_
*66 _065_
*67 _066_
*68 _067_
*69 _068_
*70 _069_
*71 _070_
*72 net118
*73 _072_
*74 _073_
*75 _074_
*76 _075_
*77 _076_
*78 _077_
*79 _078_
*80 _079_
*81 _080_
*82 _081_
*83 _082_
*84 _083_
*85 _084_
*86 _085_
*87 _086_
*88 _087_
*89 _088_
*90 _089_
*91 _090_
*92 _091_
*93 _092_
*94 _093_
*95 _094_
*96 _095_
*97 _096_
*98 _097_
*99 _098_
*100 _099_
*101 _100_
*102 _101_
*103 _102_
*104 _103_
*105 _104_
*106 _105_
*107 _106_
*108 _107_
*109 _108_
*110 _109_
*111 _110_
*112 _111_
*113 _112_
*114 _113_
*115 _114_
*116 _115_
*117 _116_
*118 _117_
*119 _118_
*120 _119_
*121 _120_
*122 _121_
*123 _122_
*124 _123_
*125 _124_
*126 _125_
*127 _126_
*128 _127_
*129 _128_
*130 _129_
*131 _130_
*132 _131_
*133 _132_
*134 _133_
*135 _134_
*136 _135_
*137 _136_
*138 _137_
*139 _138_
*140 _139_
*141 _140_
*142 _141_
*143 _142_
*144 _143_
*145 _144_
*146 _145_
*147 _146_
*148 _147_
*149 _148_
*150 _149_
*151 _150_
*152 _151_
*153 _152_
*154 _153_
*155 _154_
*156 _155_
*157 _156_
*158 _157_
*159 _158_
*160 _159_
*161 _160_
*162 _161_
*163 _162_
*164 _163_
*165 _164_
*166 _165_
*167 _166_
*168 _167_
*169 _168_
*170 _169_
*171 _170_
*172 _171_
*173 _172_
*174 _173_
*175 _174_
*176 _175_
*177 _176_
*178 _177_
*179 _178_
*180 _179_
*181 _180_
*182 _181_
*183 _182_
*184 _183_
*185 _184_
*186 _185_
*187 _186_
*188 _187_
*189 _188_
*190 _189_
*191 _190_
*192 _191_
*193 _192_
*194 _193_
*195 _194_
*196 _195_
*197 _196_
*198 _197_
*199 _198_
*200 _199_
*201 _200_
*202 _201_
*203 _202_
*204 _203_
*205 _204_
*206 _205_
*207 _206_
*208 _207_
*209 _208_
*210 _209_
*211 _210_
*212 _211_
*213 _212_
*214 _213_
*215 _214_
*216 _215_
*217 _216_
*218 _217_
*219 _218_
*220 _219_
*221 _220_
*222 _221_
*223 _222_
*224 _223_
*225 _224_
*226 _225_
*227 _226_
*228 _227_
*229 _228_
*230 _229_
*231 _230_
*232 _231_
*233 _232_
*234 _233_
*235 _234_
*236 _235_
*237 _236_
*238 _237_
*239 _238_
*240 _239_
*241 _240_
*242 _241_
*243 _242_
*244 _243_
*245 _244_
*246 _245_
*247 _246_
*248 _247_
*249 _248_
*250 _249_
*251 _250_
*252 _251_
*253 _252_
*254 _253_
*255 _254_
*256 _255_
*257 _256_
*258 _257_
*259 _258_
*260 _259_
*261 _260_
*262 _261_
*263 _262_
*264 _263_
*265 _264_
*266 _265_
*267 _266_
*268 _267_
*269 _268_
*270 _269_
*271 _270_
*272 _271_
*273 _272_
*274 _273_
*275 _274_
*276 _275_
*277 _276_
*278 _277_
*279 _278_
*280 _279_
*281 _280_
*282 _281_
*283 _282_
*284 _283_
*285 _284_
*286 _285_
*287 _286_
*288 _287_
*289 _288_
*290 _289_
*291 _290_
*292 _291_
*293 _292_
*294 _293_
*295 _294_
*296 _295_
*297 _296_
*298 _297_
*299 _298_
*300 _299_
*301 _300_
*302 _301_
*303 _302_
*304 _303_
*305 _304_
*306 _305_
*307 _306_
*308 _307_
*309 _308_
*310 _309_
*311 _310_
*312 _311_
*313 _312_
*314 _313_
*315 _314_
*316 _315_
*317 _316_
*318 _317_
*319 _318_
*320 _319_
*321 _320_
*322 _321_
*323 _322_
*324 _323_
*325 _324_
*326 _325_
*327 _326_
*328 _327_
*329 _328_
*330 _329_
*331 _330_
*332 _331_
*333 _332_
*334 _333_
*335 _334_
*336 _335_
*337 _336_
*338 _337_
*339 _338_
*340 _339_
*341 _340_
*342 _341_
*343 _342_
*344 _343_
*345 _344_
*346 _345_
*347 _346_
*348 _347_
*349 _348_
*350 _349_
*351 _350_
*352 _351_
*353 _352_
*354 _353_
*355 _354_
*356 _355_
*357 _356_
*358 _357_
*359 _358_
*360 _359_
*361 _360_
*362 _361_
*363 _362_
*364 _363_
*365 _364_
*366 _365_
*367 _366_
*368 _367_
*369 _368_
*370 _369_
*371 _370_
*372 _371_
*373 _372_
*374 _373_
*375 _374_
*376 _375_
*377 _376_
*378 _377_
*379 _378_
*380 _379_
*381 _380_
*382 _381_
*383 _382_
*384 _383_
*385 _384_
*386 _385_
*387 _386_
*388 _387_
*389 _388_
*390 _389_
*391 _390_
*392 _391_
*393 _392_
*394 _393_
*395 _394_
*396 _395_
*397 _396_
*398 _397_
*399 _398_
*400 _399_
*401 _400_
*402 _401_
*403 _402_
*404 _403_
*405 _404_
*406 _405_
*407 _406_
*408 _407_
*409 _408_
*410 _409_
*411 _410_
*412 _411_
*413 _412_
*414 _413_
*415 _414_
*416 _415_
*417 _416_
*418 _417_
*419 _418_
*420 _419_
*421 _420_
*422 _421_
*423 _422_
*424 _423_
*425 _424_
*426 _425_
*427 _426_
*428 _427_
*429 _428_
*430 _429_
*431 _430_
*432 _431_
*433 _432_
*434 _433_
*435 _434_
*436 _435_
*437 _436_
*438 _437_
*439 _438_
*440 _439_
*441 _440_
*442 _441_
*443 _442_
*444 _443_
*445 _444_
*446 _445_
*447 _446_
*448 _447_
*449 _448_
*450 _449_
*451 _450_
*452 _451_
*453 _452_
*454 _453_
*455 _454_
*456 _455_
*457 _456_
*458 _457_
*459 _458_
*460 _459_
*461 _460_
*462 _461_
*463 _462_
*464 _463_
*465 _464_
*466 _465_
*467 _466_
*468 _467_
*469 _468_
*470 _469_
*471 _470_
*472 _471_
*473 _472_
*474 _473_
*475 _474_
*476 _475_
*477 _476_
*478 _477_
*479 _478_
*480 _479_
*481 _480_
*482 _481_
*483 _482_
*484 _483_
*485 _484_
*486 _485_
*487 clk
*488 ctrl\.state\.out\[1\]
*489 ctrl\.state\.out\[2\]
*490 dpath\.a_lt_b\$in0\[0\]
*491 dpath\.a_lt_b\$in0\[10\]
*492 dpath\.a_lt_b\$in0\[11\]
*493 dpath\.a_lt_b\$in0\[12\]
*494 dpath\.a_lt_b\$in0\[13\]
*495 dpath\.a_lt_b\$in0\[14\]
*496 dpath\.a_lt_b\$in0\[15\]
*497 dpath\.a_lt_b\$in0\[1\]
*498 dpath\.a_lt_b\$in0\[2\]
*499 dpath\.a_lt_b\$in0\[3\]
*500 dpath\.a_lt_b\$in0\[4\]
*501 dpath\.a_lt_b\$in0\[5\]
*502 dpath\.a_lt_b\$in0\[6\]
*503 dpath\.a_lt_b\$in0\[7\]
*504 dpath\.a_lt_b\$in0\[8\]
*505 dpath\.a_lt_b\$in0\[9\]
*506 dpath\.a_lt_b\$in1\[0\]
*507 dpath\.a_lt_b\$in1\[10\]
*508 dpath\.a_lt_b\$in1\[11\]
*509 dpath\.a_lt_b\$in1\[12\]
*510 dpath\.a_lt_b\$in1\[13\]
*511 dpath\.a_lt_b\$in1\[14\]
*512 dpath\.a_lt_b\$in1\[15\]
*513 dpath\.a_lt_b\$in1\[1\]
*514 dpath\.a_lt_b\$in1\[2\]
*515 dpath\.a_lt_b\$in1\[3\]
*516 dpath\.a_lt_b\$in1\[4\]
*517 dpath\.a_lt_b\$in1\[5\]
*518 dpath\.a_lt_b\$in1\[6\]
*519 dpath\.a_lt_b\$in1\[7\]
*520 dpath\.a_lt_b\$in1\[8\]
*521 dpath\.a_lt_b\$in1\[9\]
*522 req_msg[0]
*523 req_msg[10]
*524 req_msg[11]
*525 req_msg[12]
*526 req_msg[13]
*527 req_msg[14]
*528 req_msg[15]
*529 req_msg[16]
*530 req_msg[17]
*531 req_msg[18]
*532 req_msg[19]
*533 req_msg[1]
*534 req_msg[20]
*535 req_msg[21]
*536 req_msg[22]
*537 req_msg[23]
*538 req_msg[24]
*539 req_msg[25]
*540 req_msg[26]
*541 req_msg[27]
*542 req_msg[28]
*543 req_msg[29]
*544 req_msg[2]
*545 req_msg[30]
*546 req_msg[31]
*547 req_msg[3]
*548 req_msg[4]
*549 req_msg[5]
*550 req_msg[6]
*551 req_msg[7]
*552 req_msg[8]
*553 req_msg[9]
*554 net36
*555 req_val
*556 reset
*557 net37
*558 net38
*559 net39
*560 net40
*561 net41
*562 net42
*563 net43
*564 net44
*565 net45
*566 net46
*567 net47
*568 net48
*569 net49
*570 net50
*571 net51
*572 net52
*573 resp_rdy
*574 net53
*577 net1
*578 net2
*579 net3
*580 net4
*581 net5
*582 net6
*583 net7
*584 net8
*585 net9
*586 net10
*587 net11
*588 net12
*589 net13
*590 net14
*591 net15
*592 net16
*593 net17
*594 net18
*595 net19
*596 net20
*597 net21
*598 net22
*599 net23
*600 net24
*601 net25
*602 net26
*603 net27
*604 net28
*605 net29
*606 net30
*607 net31
*608 net32
*609 net33
*610 net34
*611 net35
*612 req_rdy
*613 resp_msg[0]
*614 resp_msg[10]
*615 resp_msg[11]
*616 resp_msg[12]
*617 resp_msg[13]
*618 resp_msg[14]
*619 resp_msg[15]
*620 resp_msg[1]
*621 resp_msg[2]
*622 resp_msg[3]
*623 resp_msg[4]
*624 resp_msg[5]
*625 resp_msg[6]
*626 resp_msg[7]
*627 resp_msg[8]
*628 resp_msg[9]
*629 resp_val
*630 clknet_0_clk
*631 clknet_2_0__leaf_clk
*632 clknet_2_1__leaf_clk
*633 clknet_2_2__leaf_clk
*634 clknet_2_3__leaf_clk
*635 net54
*636 net55
*637 net56
*638 net57
*639 net58
*640 net59
*641 net60
*642 net61
*643 net62
*644 net63
*645 net64
*646 net65
*647 net72
*648 net73
*649 net74
*650 net80
*651 net81
*652 net100
*653 net101
*654 net102
*655 net103
*656 net114
*657 net115
*658 net116
*659 net117
*660 net119
*661 net120
*662 net121
*663 net122
*664 net123
*665 net124
*666 net66
*667 net67
*668 net68
*669 net69
*670 net70
*671 net71
*672 net75
*673 net76
*674 net77
*675 net84
*676 net85
*677 net86
*678 net87
*679 net88
*680 net89
*681 net94
*682 net97
*683 _486_
*684 _487_
*685 _488_
*686 _489_
*687 _490_
*688 _491_
*689 _492_
*690 _493_
*691 _494_
*692 _495_
*693 _496_
*694 _497_
*695 _498_
*696 _499_
*697 _500_
*698 _501_
*699 _502_
*700 _503_
*701 _504_
*702 _505_
*703 _506_
*704 _507_
*705 _508_
*706 _509_
*707 _510_
*708 _511_
*709 _512_
*710 _513_
*711 _514_
*712 _515_
*713 _516_
*714 _517_
*715 _518_
*716 _519_
*717 _520_
*718 _521_
*719 _522_
*720 _523_
*721 _524_
*722 _525_
*723 rebuffer65
*724 _527_
*725 _528_
*726 _529_
*727 _530_
*728 _531_
*729 _532_
*730 _533_
*731 _534_
*732 _535_
*733 _536_
*734 _537_
*735 _538_
*736 _539_
*737 _540_
*738 _541_
*739 _542_
*740 _543_
*741 _544_
*742 _545_
*743 _546_
*744 _547_
*745 _548_
*746 _549_
*747 _550_
*748 _551_
*749 _552_
*750 _553_
*751 _554_
*752 _555_
*753 _556_
*754 _557_
*755 _558_
*756 _559_
*757 _560_
*758 _561_
*759 _562_
*760 _563_
*761 _564_
*762 _565_
*763 _566_
*764 _567_
*765 _568_
*766 _569_
*767 _570_
*768 _571_
*769 _572_
*770 _573_
*771 _574_
*772 _575_
*773 _576_
*774 _577_
*775 _578_
*776 _579_
*777 _580_
*778 _581_
*779 _582_
*780 _583_
*781 _584_
*782 _585_
*783 _586_
*784 _587_
*785 _588_
*786 _589_
*787 _590_
*788 _591_
*789 _592_
*790 _593_
*791 _594_
*792 _595_
*793 _596_
*794 _597_
*795 _598_
*796 _599_
*797 _600_
*798 _601_
*799 _602_
*800 _603_
*801 _604_
*802 _605_
*803 _606_
*804 _607_
*805 _608_
*806 _609_
*807 _610_
*808 _611_
*809 _612_
*810 _613_
*811 _614_
*812 _615_
*813 _616_
*814 _617_
*815 _618_
*816 _619_
*817 _620_
*818 _621_
*819 _622_
*820 _623_
*821 _624_
*822 _625_
*823 _626_
*824 _627_
*825 _628_
*826 _629_
*827 _630_
*828 _631_
*829 _632_
*830 _633_
*831 _634_
*832 _635_
*833 _636_
*834 _637_
*835 _638_
*836 _639_
*837 _640_
*838 _641_
*839 _642_
*840 _643_
*841 _644_
*842 _645_
*843 _646_
*844 _647_
*845 _648_
*846 _649_
*847 _650_
*848 _651_
*849 _652_
*850 _653_
*851 _654_
*852 _655_
*853 _656_
*854 _657_
*855 _658_
*856 _659_
*857 _660_
*858 _661_
*859 _662_
*860 _663_
*861 _664_
*862 _665_
*863 _666_
*864 _667_
*865 _668_
*866 _669_
*867 _670_
*868 _671_
*869 _672_
*870 _673_
*871 _674_
*872 _675_
*873 _676_
*874 _677_
*875 _678_
*876 _679_
*877 _680_
*878 _681_
*879 _682_
*880 _683_
*881 _684_
*882 _685_
*883 _686_
*884 _687_
*885 _688_
*886 _689_
*887 _690_
*888 _691_
*889 _692_
*890 _693_
*891 _694_
*892 _695_
*893 _696_
*894 _697_
*895 _698_
*896 _699_
*897 _700_
*898 _701_
*899 _702_
*900 _703_
*901 _704_
*902 _705_
*903 _706_
*904 _707_
*905 _708_
*906 _709_
*907 _710_
*908 _711_
*909 _712_
*910 _713_
*911 _714_
*912 _715_
*913 _716_
*914 _717_
*915 _718_
*916 _719_
*917 _720_
*918 _721_
*919 _722_
*920 _723_
*921 _724_
*922 _725_
*923 _726_
*924 _727_
*925 _728_
*926 _729_
*927 _730_
*928 _731_
*929 _732_
*930 _733_
*931 _734_
*932 _735_
*933 _736_
*934 _737_
*935 _738_
*936 _739_
*937 _740_
*938 _741_
*939 _742_
*940 _743_
*941 _744_
*942 _745_
*943 _746_
*944 _747_
*945 _748_
*946 _749_
*947 _750_
*948 _751_
*949 _752_
*950 _753_
*951 _754_
*952 _755_
*953 _756_
*954 _757_
*955 _758_
*956 _759_
*957 _760_
*958 _761_
*959 _762_
*960 _763_
*961 _764_
*962 _765_
*963 _766_
*964 _767_
*965 _768_
*966 _769_
*967 _770_
*968 _771_
*969 _772_
*970 _773_
*971 _774_
*972 _775_
*973 _776_
*974 _777_
*975 _778_
*976 _779_
*977 _780_
*978 _781_
*979 _782_
*980 _783_
*981 _784_
*982 _785_
*983 _786_
*984 _787_
*985 _788_
*986 _789_
*987 _790_
*988 _791_
*989 _792_
*990 _793_
*991 _794_
*992 _795_
*993 _796_
*994 _797_
*995 _798_
*996 _799_
*997 _800_
*998 _801_
*999 _802_
*1000 _803_
*1001 _804_
*1002 _805_
*1003 _806_
*1004 _807_
*1005 _808_
*1006 _809_
*1007 _810_
*1008 _811_
*1009 _812_
*1010 _813_
*1011 _814_
*1012 _815_
*1013 _816_
*1014 _817_
*1015 _818_
*1016 _819_
*1017 _820_
*1018 _821_
*1019 _822_
*1020 _823_
*1021 _824_
*1022 _825_
*1023 _826_
*1024 _827_
*1025 _828_
*1026 _829_
*1027 _830_
*1028 _831_
*1029 _832_
*1030 _833_
*1031 _834_
*1032 _835_
*1033 _836_
*1034 _837_
*1035 _838_
*1036 _839_
*1037 _840_
*1038 _841_
*1039 _842_
*1040 _843_
*1041 _844_
*1042 _845_
*1043 _846_
*1044 _847_
*1045 _848_
*1046 _849_
*1047 _850_
*1048 _851_
*1049 _852_
*1050 _853_
*1051 _854_
*1052 _855_
*1053 _856_
*1054 _857_
*1055 _858_
*1056 _859_
*1057 _860_
*1058 _861_
*1059 _862_
*1060 _863_
*1061 _864_
*1062 _865_
*1063 _866_
*1064 _867_
*1065 _868_
*1066 _869_
*1067 _870_
*1068 _871_
*1069 _872_
*1070 _873_
*1071 _874_
*1072 _875_
*1073 _876_
*1074 _877_
*1075 _878_
*1076 _879_
*1077 _880_
*1078 _881_
*1079 _882_
*1080 _883_
*1081 _884_
*1082 _885_
*1083 _886_
*1084 _887_
*1085 _888_
*1086 _889_
*1087 _890_
*1088 _891_
*1089 _892_
*1090 _893_
*1091 _894_
*1092 _895_
*1093 _896_
*1094 _897_
*1095 _898_
*1096 _899_
*1097 _900_
*1098 _901_
*1099 _902_
*1100 _903_
*1101 _904_
*1102 _905_
*1103 _906_
*1104 _907_
*1105 _908_
*1106 _909_
*1107 _910_
*1108 _911_
*1109 _912_
*1110 _913_
*1111 _914_
*1112 _915_
*1113 _916_
*1114 _917_
*1115 _918_
*1116 _919_
*1117 _920_
*1118 _921_
*1119 _922_
*1120 _923_
*1121 _924_
*1122 _925_
*1123 _926_
*1124 _927_
*1125 _928_
*1126 _929_
*1127 _930_
*1128 _931_
*1129 _932_
*1130 _933_
*1131 _934_
*1132 _935_
*1133 _936_
*1134 _937_
*1135 _938_
*1136 _939_
*1137 _940_
*1138 _941_
*1139 _942_
*1140 _943_
*1141 _944_
*1142 _945_
*1143 _946_
*1144 _947_
*1145 _948_
*1146 _949_
*1147 _950_
*1148 _951_
*1149 _952_
*1150 _953_
*1151 ctrl\.state\.out\[0\]\$_DFF_P_
*1152 ctrl\.state\.out\[1\]\$_DFF_P_
*1153 ctrl\.state\.out\[2\]\$_DFF_P_
*1154 dpath\.a_reg\.out\[0\]\$_DFFE_PP_
*1155 dpath\.a_reg\.out\[10\]\$_DFFE_PP_
*1156 dpath\.a_reg\.out\[11\]\$_DFFE_PP_
*1157 dpath\.a_reg\.out\[12\]\$_DFFE_PP_
*1158 dpath\.a_reg\.out\[13\]\$_DFFE_PP_
*1159 dpath\.a_reg\.out\[14\]\$_DFFE_PP_
*1160 dpath\.a_reg\.out\[15\]\$_DFFE_PP_
*1161 dpath\.a_reg\.out\[1\]\$_DFFE_PP_
*1162 dpath\.a_reg\.out\[2\]\$_DFFE_PP_
*1163 dpath\.a_reg\.out\[3\]\$_DFFE_PP_
*1164 dpath\.a_reg\.out\[4\]\$_DFFE_PP_
*1165 dpath\.a_reg\.out\[5\]\$_DFFE_PP_
*1166 dpath\.a_reg\.out\[6\]\$_DFFE_PP_
*1167 dpath\.a_reg\.out\[7\]\$_DFFE_PP_
*1168 dpath\.a_reg\.out\[8\]\$_DFFE_PP_
*1169 dpath\.a_reg\.out\[9\]\$_DFFE_PP_
*1170 dpath\.b_reg\.out\[0\]\$_DFFE_PP_
*1171 dpath\.b_reg\.out\[10\]\$_DFFE_PP_
*1172 dpath\.b_reg\.out\[11\]\$_DFFE_PP_
*1173 dpath\.b_reg\.out\[12\]\$_DFFE_PP_
*1174 dpath\.b_reg\.out\[13\]\$_DFFE_PP_
*1175 dpath\.b_reg\.out\[14\]\$_DFFE_PP_
*1176 dpath\.b_reg\.out\[15\]\$_DFFE_PP_
*1177 dpath\.b_reg\.out\[1\]\$_DFFE_PP_
*1178 dpath\.b_reg\.out\[2\]\$_DFFE_PP_
*1179 dpath\.b_reg\.out\[3\]\$_DFFE_PP_
*1180 dpath\.b_reg\.out\[4\]\$_DFFE_PP_
*1181 dpath\.b_reg\.out\[5\]\$_DFFE_PP_
*1182 dpath\.b_reg\.out\[6\]\$_DFFE_PP_
*1183 dpath\.b_reg\.out\[7\]\$_DFFE_PP_
*1184 dpath\.b_reg\.out\[8\]\$_DFFE_PP_
*1185 dpath\.b_reg\.out\[9\]\$_DFFE_PP_
*1186 PHY_EDGE_ROW_0_Right_0
*1187 PHY_EDGE_ROW_1_Right_1
*1188 PHY_EDGE_ROW_2_Right_2
*1189 PHY_EDGE_ROW_3_Right_3
*1190 PHY_EDGE_ROW_4_Right_4
*1191 PHY_EDGE_ROW_5_Right_5
*1192 PHY_EDGE_ROW_6_Right_6
*1193 PHY_EDGE_ROW_7_Right_7
*1194 PHY_EDGE_ROW_8_Right_8
*1195 PHY_EDGE_ROW_9_Right_9
*1196 PHY_EDGE_ROW_10_Right_10
*1197 PHY_EDGE_ROW_11_Right_11
*1198 PHY_EDGE_ROW_12_Right_12
*1199 PHY_EDGE_ROW_13_Right_13
*1200 PHY_EDGE_ROW_14_Right_14
*1201 PHY_EDGE_ROW_15_Right_15
*1202 PHY_EDGE_ROW_16_Right_16
*1203 PHY_EDGE_ROW_17_Right_17
*1204 PHY_EDGE_ROW_18_Right_18
*1205 PHY_EDGE_ROW_19_Right_19
*1206 PHY_EDGE_ROW_20_Right_20
*1207 PHY_EDGE_ROW_21_Right_21
*1208 PHY_EDGE_ROW_22_Right_22
*1209 PHY_EDGE_ROW_23_Right_23
*1210 PHY_EDGE_ROW_0_Left_24
*1211 PHY_EDGE_ROW_1_Left_25
*1212 PHY_EDGE_ROW_2_Left_26
*1213 PHY_EDGE_ROW_3_Left_27
*1214 PHY_EDGE_ROW_4_Left_28
*1215 PHY_EDGE_ROW_5_Left_29
*1216 PHY_EDGE_ROW_6_Left_30
*1217 PHY_EDGE_ROW_7_Left_31
*1218 PHY_EDGE_ROW_8_Left_32
*1219 PHY_EDGE_ROW_9_Left_33
*1220 PHY_EDGE_ROW_10_Left_34
*1221 PHY_EDGE_ROW_11_Left_35
*1222 PHY_EDGE_ROW_12_Left_36
*1223 PHY_EDGE_ROW_13_Left_37
*1224 PHY_EDGE_ROW_14_Left_38
*1225 PHY_EDGE_ROW_15_Left_39
*1226 PHY_EDGE_ROW_16_Left_40
*1227 PHY_EDGE_ROW_17_Left_41
*1228 PHY_EDGE_ROW_18_Left_42
*1229 PHY_EDGE_ROW_19_Left_43
*1230 PHY_EDGE_ROW_20_Left_44
*1231 PHY_EDGE_ROW_21_Left_45
*1232 PHY_EDGE_ROW_22_Left_46
*1233 PHY_EDGE_ROW_23_Left_47
*1234 input1
*1235 input2
*1236 input3
*1237 input4
*1238 input5
*1239 input6
*1240 input7
*1241 input8
*1242 input9
*1243 input10
*1244 input11
*1245 input12
*1246 input13
*1247 input14
*1248 input15
*1249 input16
*1250 input17
*1251 input18
*1252 input19
*1253 input20
*1254 input21
*1255 input22
*1256 input23
*1257 input24
*1258 input25
*1259 input26
*1260 input27
*1261 input28
*1262 input29
*1263 input30
*1264 input31
*1265 input32
*1266 input33
*1267 input34
*1268 input35
*1269 output36
*1270 output37
*1271 output38
*1272 output39
*1273 output40
*1274 output41
*1275 output42
*1276 output43
*1277 output44
*1278 output45
*1279 output46
*1280 output47
*1281 output48
*1282 output49
*1283 output50
*1284 output51
*1285 output52
*1286 output53
*1287 clkbuf_0_clk
*1288 clkbuf_2_0__f_clk
*1289 clkbuf_2_1__f_clk
*1290 clkbuf_2_2__f_clk
*1291 clkbuf_2_3__f_clk
*1292 clkload0
*1293 clkload1
*1294 clkload2
*1295 rebuffer1
*1296 rebuffer2
*1297 rebuffer3
*1298 rebuffer4
*1299 rebuffer5
*1300 rebuffer6
*1301 rebuffer7
*1302 rebuffer8
*1303 rebuffer9
*1304 rebuffer10
*1305 rebuffer11
*1306 rebuffer12
*1307 rebuffer19
*1308 rebuffer20
*1309 rebuffer21
*1310 rebuffer27
*1311 rebuffer28
*1312 rebuffer47
*1313 rebuffer48
*1314 rebuffer49
*1315 rebuffer50
*1316 rebuffer61
*1317 rebuffer62
*1318 rebuffer63
*1319 rebuffer64
*1320 rebuffer66
*1321 rebuffer67
*1322 rebuffer68
*1323 rebuffer69
*1324 rebuffer70
*1325 rebuffer71
*1326 rebuffer13
*1327 rebuffer14
*1328 rebuffer15
*1329 rebuffer16
*1330 rebuffer17
*1331 rebuffer18
*1332 rebuffer22
*1333 rebuffer23
*1334 rebuffer24
*1335 rebuffer31
*1336 rebuffer32
*1337 rebuffer33
*1338 rebuffer34
*1339 rebuffer35
*1340 rebuffer36
*1341 rebuffer41
*1342 rebuffer44
*1343 FILLER_0_1
*1344 FILLER_0_17
*1345 FILLER_0_176
*1346 FILLER_0_178
*1347 FILLER_1_1
*1348 FILLER_1_17
*1349 FILLER_1_19
*1350 FILLER_1_54
*1351 FILLER_1_104
*1352 FILLER_1_117
*1353 FILLER_1_146
*1354 FILLER_1_169
*1355 FILLER_1_177
*1356 FILLER_2_1
*1357 FILLER_2_3
*1358 FILLER_2_21
*1359 FILLER_2_25
*1360 FILLER_2_38
*1361 FILLER_2_42
*1362 FILLER_2_69
*1363 FILLER_2_167
*1364 FILLER_2_175
*1365 FILLER_3_1
*1366 FILLER_3_9
*1367 FILLER_3_17
*1368 FILLER_3_25
*1369 FILLER_3_33
*1370 FILLER_3_35
*1371 FILLER_3_40
*1372 FILLER_3_67
*1373 FILLER_3_108
*1374 FILLER_3_168
*1375 FILLER_3_176
*1376 FILLER_3_178
*1377 FILLER_4_4
*1378 FILLER_4_20
*1379 FILLER_4_32
*1380 FILLER_4_45
*1381 FILLER_4_75
*1382 FILLER_4_84
*1383 FILLER_4_131
*1384 FILLER_4_178
*1385 FILLER_5_1
*1386 FILLER_5_37
*1387 FILLER_5_39
*1388 FILLER_5_47
*1389 FILLER_5_49
*1390 FILLER_5_61
*1391 FILLER_5_65
*1392 FILLER_5_97
*1393 FILLER_5_102
*1394 FILLER_5_173
*1395 FILLER_5_177
*1396 FILLER_6_1
*1397 FILLER_6_9
*1398 FILLER_6_16
*1399 FILLER_6_18
*1400 FILLER_6_22
*1401 FILLER_6_30
*1402 FILLER_6_34
*1403 FILLER_6_49
*1404 FILLER_6_55
*1405 FILLER_6_66
*1406 FILLER_6_72
*1407 FILLER_6_80
*1408 FILLER_6_84
*1409 FILLER_6_88
*1410 FILLER_6_93
*1411 FILLER_6_99
*1412 FILLER_6_160
*1413 FILLER_6_177
*1414 FILLER_7_10
*1415 FILLER_7_14
*1416 FILLER_7_32
*1417 FILLER_7_40
*1418 FILLER_7_44
*1419 FILLER_7_52
*1420 FILLER_7_54
*1421 FILLER_7_78
*1422 FILLER_7_82
*1423 FILLER_7_84
*1424 FILLER_7_99
*1425 FILLER_7_105
*1426 FILLER_8_23
*1427 FILLER_8_38
*1428 FILLER_8_40
*1429 FILLER_8_58
*1430 FILLER_8_71
*1431 FILLER_8_79
*1432 FILLER_8_83
*1433 FILLER_8_89
*1434 FILLER_8_110
*1435 FILLER_9_1
*1436 FILLER_9_11
*1437 FILLER_9_18
*1438 FILLER_9_23
*1439 FILLER_9_28
*1440 FILLER_9_39
*1441 FILLER_9_41
*1442 FILLER_9_50
*1443 FILLER_9_58
*1444 FILLER_9_62
*1445 FILLER_9_71
*1446 FILLER_9_75
*1447 FILLER_9_77
*1448 FILLER_9_82
*1449 FILLER_9_168
*1450 FILLER_9_178
*1451 FILLER_10_7
*1452 FILLER_10_15
*1453 FILLER_10_29
*1454 FILLER_10_33
*1455 FILLER_10_58
*1456 FILLER_10_80
*1457 FILLER_10_84
*1458 FILLER_10_89
*1459 FILLER_10_93
*1460 FILLER_11_1
*1461 FILLER_11_3
*1462 FILLER_11_21
*1463 FILLER_11_23
*1464 FILLER_11_31
*1465 FILLER_11_35
*1466 FILLER_11_37
*1467 FILLER_11_43
*1468 FILLER_11_61
*1469 FILLER_11_78
*1470 FILLER_11_92
*1471 FILLER_11_142
*1472 FILLER_11_177
*1473 FILLER_12_1
*1474 FILLER_12_17
*1475 FILLER_12_25
*1476 FILLER_12_27
*1477 FILLER_12_49
*1478 FILLER_12_70
*1479 FILLER_12_95
*1480 FILLER_12_99
*1481 FILLER_12_177
*1482 FILLER_13_1
*1483 FILLER_13_9
*1484 FILLER_13_33
*1485 FILLER_13_37
*1486 FILLER_13_52
*1487 FILLER_13_68
*1488 FILLER_13_77
*1489 FILLER_13_88
*1490 FILLER_13_93
*1491 FILLER_13_142
*1492 FILLER_13_174
*1493 FILLER_13_178
*1494 FILLER_14_1
*1495 FILLER_14_9
*1496 FILLER_14_16
*1497 FILLER_14_20
*1498 FILLER_14_53
*1499 FILLER_14_58
*1500 FILLER_14_62
*1501 FILLER_14_81
*1502 FILLER_14_89
*1503 FILLER_14_95
*1504 FILLER_14_109
*1505 FILLER_14_169
*1506 FILLER_14_177
*1507 FILLER_15_4
*1508 FILLER_15_26
*1509 FILLER_15_30
*1510 FILLER_15_112
*1511 FILLER_15_159
*1512 FILLER_15_175
*1513 FILLER_16_1
*1514 FILLER_16_5
*1515 FILLER_16_9
*1516 FILLER_16_17
*1517 FILLER_16_21
*1518 FILLER_16_48
*1519 FILLER_16_69
*1520 FILLER_16_74
*1521 FILLER_16_80
*1522 FILLER_16_107
*1523 FILLER_16_155
*1524 FILLER_16_171
*1525 FILLER_17_1
*1526 FILLER_17_5
*1527 FILLER_17_7
*1528 FILLER_17_11
*1529 FILLER_17_27
*1530 FILLER_17_31
*1531 FILLER_17_35
*1532 FILLER_17_50
*1533 FILLER_17_60
*1534 FILLER_17_79
*1535 FILLER_17_81
*1536 FILLER_17_111
*1537 FILLER_17_159
*1538 FILLER_17_175
*1539 FILLER_18_1
*1540 FILLER_18_17
*1541 FILLER_18_21
*1542 FILLER_18_26
*1543 FILLER_18_45
*1544 FILLER_18_47
*1545 FILLER_18_83
*1546 FILLER_18_87
*1547 FILLER_18_91
*1548 FILLER_18_93
*1549 FILLER_18_148
*1550 FILLER_18_157
*1551 FILLER_18_173
*1552 FILLER_18_177
*1553 FILLER_19_1
*1554 FILLER_19_17
*1555 FILLER_19_21
*1556 FILLER_19_26
*1557 FILLER_19_28
*1558 FILLER_19_57
*1559 FILLER_19_59
*1560 FILLER_19_86
*1561 FILLER_19_88
*1562 FILLER_19_92
*1563 FILLER_19_96
*1564 FILLER_19_109
*1565 FILLER_19_113
*1566 FILLER_19_124
*1567 FILLER_19_140
*1568 FILLER_19_151
*1569 FILLER_19_167
*1570 FILLER_19_175
*1571 FILLER_20_1
*1572 FILLER_20_6
*1573 FILLER_20_8
*1574 FILLER_20_33
*1575 FILLER_20_37
*1576 FILLER_20_51
*1577 FILLER_20_94
*1578 FILLER_20_123
*1579 FILLER_20_136
*1580 FILLER_20_144
*1581 FILLER_20_176
*1582 FILLER_20_178
*1583 FILLER_21_1
*1584 FILLER_21_17
*1585 FILLER_21_25
*1586 FILLER_21_34
*1587 FILLER_21_38
*1588 FILLER_21_40
*1589 FILLER_21_48
*1590 FILLER_21_56
*1591 FILLER_21_63
*1592 FILLER_21_72
*1593 FILLER_21_87
*1594 FILLER_21_91
*1595 FILLER_21_116
*1596 FILLER_21_145
*1597 FILLER_21_177
*1598 FILLER_22_1
*1599 FILLER_22_17
*1600 FILLER_22_19
*1601 FILLER_22_54
*1602 FILLER_22_75
*1603 FILLER_22_77
*1604 FILLER_22_105
*1605 FILLER_22_113
*1606 FILLER_22_117
*1607 FILLER_22_119
*1608 FILLER_22_136
*1609 FILLER_22_168
*1610 FILLER_22_176
*1611 FILLER_22_178
*1612 FILLER_23_1
*1613 FILLER_23_17
*1614 FILLER_23_21
*1615 FILLER_23_23
*1616 FILLER_23_31
*1617 FILLER_23_35
*1618 FILLER_23_52
*1619 FILLER_23_60
*1620 FILLER_23_75
*1621 FILLER_23_82
*1622 FILLER_23_92
*1623 FILLER_23_96
*1624 FILLER_23_98
*1625 FILLER_23_102
*1626 FILLER_23_110
*1627 FILLER_23_121
*1628 FILLER_23_123
*1629 FILLER_23_127
*1630 FILLER_23_159
*1631 FILLER_23_175

*PORTS
clk I
req_msg[0] I
req_msg[10] I
req_msg[11] I
req_msg[12] I
req_msg[13] I
req_msg[14] I
req_msg[15] I
req_msg[16] I
req_msg[17] I
req_msg[18] I
req_msg[19] I
req_msg[1] I
req_msg[20] I
req_msg[21] I
req_msg[22] I
req_msg[23] I
req_msg[24] I
req_msg[25] I
req_msg[26] I
req_msg[27] I
req_msg[28] I
req_msg[29] I
req_msg[2] I
req_msg[30] I
req_msg[31] I
req_msg[3] I
req_msg[4] I
req_msg[5] I
req_msg[6] I
req_msg[7] I
req_msg[8] I
req_msg[9] I
req_rdy O
req_val I
reset I
resp_msg[0] O
resp_msg[10] O
resp_msg[11] O
resp_msg[12] O
resp_msg[13] O
resp_msg[14] O
resp_msg[15] O
resp_msg[1] O
resp_msg[2] O
resp_msg[3] O
resp_msg[4] O
resp_msg[5] O
resp_msg[6] O
resp_msg[7] O
resp_msg[8] O
resp_msg[9] O
resp_rdy I
resp_val O

*D_NET *1 0.000144598
*CONN
*I *1151:D I *D DFF_X1
*I *718:ZN O *D OAI21_X1
*CAP
1 *1151:D 5.90089e-05
2 *718:ZN 5.90089e-05
3 *1151:D *718:A 8.43215e-07
4 *1151:D *1151:CK 2.19022e-05
5 *1151:D *68:66 3.83453e-06
*RES
1 *718:ZN *1151:D 16.8571 
*END

*D_NET *2 0.000175204
*CONN
*I *1152:D I *D DFF_X1
*I *721:ZN O *D OAI21_X1
*CAP
1 *1152:D 5.26997e-05
2 *721:ZN 5.26997e-05
3 *1152:D *714:A 6.37515e-06
4 *1152:D *714:B2 1.57087e-05
5 *1152:D *1267:A 3.69646e-06
6 *1152:D *609:18 4.40245e-05
*RES
1 *721:ZN *1152:D 26.7143 
*END

*D_NET *3 0.000110362
*CONN
*I *1153:D I *D DFF_X1
*I *711:ZN O *D OAI22_X1
*CAP
1 *1153:D 4.58979e-05
2 *711:ZN 4.58979e-05
3 *1153:D *706:A2 0
4 *1153:D *57:12 8.26038e-06
5 *1153:D *68:97 0
6 *1153:D *610:16 2.39679e-06
7 *1153:D *631:42 7.19234e-06
8 *1153:D *631:46 7.16188e-07
*RES
1 *711:ZN *1153:D 15.1786 
*END

*D_NET *4 0.000621972
*CONN
*I *832:A2 I *D NAND2_X2
*I *712:A I *D BUF_X4
*I *1151:QN O *D DFF_X1
*CAP
1 *832:A2 0.000138306
2 *712:A 0
3 *1151:QN 3.7371e-05
4 *4:8 0.000175677
5 *832:A2 *713:A3 9.05228e-06
6 *832:A2 *1081:A2 1.02335e-05
7 *832:A2 *1084:A1 0
8 *832:A2 *1084:A2 3.58205e-06
9 *832:A2 *58:21 3.02372e-05
10 *832:A2 *58:30 0.0001661
11 *832:A2 *65:23 2.70741e-05
12 *832:A2 *194:10 8.71963e-06
13 *832:A2 *398:16 1.92833e-06
14 *4:8 *713:A1 0
15 *4:8 *713:A3 1.36901e-05
*RES
1 *1151:QN *4:8 14.3214 
2 *4:8 *712:A 10 
3 *4:8 *832:A2 29.25 
*END

*D_NET *5 0.000278005
*CONN
*I *1154:D I *D DFF_X1
*I *844:ZN O *D NAND2_X1
*CAP
1 *1154:D 0.000101738
2 *844:ZN 0.000101738
3 *1154:D *843:B2 1.90842e-05
4 *1154:D *844:A1 1.11168e-06
5 *1154:D *1087:B 3.34657e-06
6 *1154:D *190:67 4.26691e-05
7 *1154:D *490:24 6.44376e-06
8 *1154:D *631:46 1.87369e-06
*RES
1 *844:ZN *1154:D 32.1786 
*END

*D_NET *6 0.000424379
*CONN
*I *1155:D I *D DFF_X1
*I *866:ZN O *D NAND2_X1
*CAP
1 *1155:D 0.000100239
2 *866:ZN 0.000100239
3 *1155:D *865:B2 0.000167745
4 *1155:D *1091:A2 2.74497e-05
5 *1155:D *1155:CK 1.87905e-05
6 *1155:D *68:66 0
7 *1155:D *632:27 9.91569e-06
*RES
1 *866:ZN *1155:D 34.3929 
*END

*D_NET *7 0.000115109
*CONN
*I *1156:D I *D DFF_X1
*I *915:ZN O *D NAND2_X1
*CAP
1 *1156:D 4.71937e-05
2 *915:ZN 4.71937e-05
3 *1156:D *915:A2 5.01336e-06
4 *1156:D *68:43 0
5 *1156:D *187:28 1.57087e-05
*RES
1 *915:ZN *1156:D 15.3571 
*END

*D_NET *8 0.000120499
*CONN
*I *1157:D I *D DFF_X1
*I *935:ZN O *D NAND2_X1
*CAP
1 *1157:D 3.19833e-05
2 *935:ZN 3.19833e-05
3 *1157:D *935:A1 2.33442e-05
4 *1157:D *67:103 3.31876e-05
5 *1157:D *187:45 0
*RES
1 *935:ZN *1157:D 14.8929 
*END

*D_NET *9 0.000442893
*CONN
*I *1158:D I *D DFF_X1
*I *963:ZN O *D NAND2_X1
*CAP
1 *1158:D 7.49647e-05
2 *963:ZN 7.49647e-05
3 *1158:D *771:A 7.79679e-05
4 *1158:D *961:A2 3.02372e-05
5 *1158:D *962:A 7.82257e-06
6 *1158:D *962:B1 1.20752e-06
7 *1158:D *962:B2 0.000171599
8 *1158:D *1255:A 0
9 *1158:D *68:14 4.12911e-06
*RES
1 *963:ZN *1158:D 33.2143 
*END

*D_NET *10 0.000136227
*CONN
*I *1159:D I *D DFF_X1
*I *984:ZN O *D NAND2_X1
*CAP
1 *1159:D 3.57208e-05
2 *984:ZN 3.57208e-05
3 *1159:D *984:A1 2.22163e-05
4 *1159:D *984:A2 4.25689e-05
*RES
1 *984:ZN *1159:D 15.4286 
*END

*D_NET *11 0.000184716
*CONN
*I *1160:D I *D DFF_X1
*I *1004:ZN O *D NAND2_X1
*CAP
1 *1160:D 8.03524e-05
2 *1004:ZN 8.03524e-05
3 *1160:D *771:A 0
4 *1160:D *961:A2 0
5 *1160:D *1004:A1 7.72537e-06
6 *1160:D *1004:A2 1.62857e-05
7 *1160:D *1158:CK 0
8 *1160:D *190:102 0
*RES
1 *1004:ZN *1160:D 28.4643 
*END

*D_NET *12 0.000170804
*CONN
*I *1161:D I *D DFF_X1
*I *1012:ZN O *D NAND2_X1
*CAP
1 *1161:D 8.28624e-05
2 *1012:ZN 8.28624e-05
3 *1161:D *1011:B1 2.70833e-06
4 *1161:D *1012:A2 1.7326e-06
5 *1161:D *1161:CK 6.38328e-07
*RES
1 *1012:ZN *1161:D 18.75 
*END

*D_NET *13 0.000142658
*CONN
*I *1162:D I *D DFF_X1
*I *1019:ZN O *D NAND2_X1
*CAP
1 *1162:D 4.3608e-05
2 *1019:ZN 4.3608e-05
3 *1162:D *1018:B2 1.4491e-05
4 *1162:D *1019:A1 3.85541e-05
5 *1162:D *1161:CK 0
6 *1162:D *631:50 2.39679e-06
*RES
1 *1019:ZN *1162:D 25.3571 
*END

*D_NET *14 0.000333538
*CONN
*I *1163:D I *D DFF_X1
*I *1026:ZN O *D NAND2_X1
*CAP
1 *1163:D 9.68707e-05
2 *1026:ZN 9.68707e-05
3 *1163:D resp_msg[0] 1.11168e-06
4 *1163:D *1026:A1 2.91227e-05
5 *1163:D *1026:A2 2.96568e-05
6 *1163:D *1163:CK 6.56654e-06
7 *1163:D *1243:A 0
8 *1163:D *1256:A 9.91433e-06
9 *1163:D *1270:A 1.87369e-06
10 *1163:D *1277:A 2.82896e-05
11 *1163:D *599:18 3.32615e-05
*RES
1 *1026:ZN *1163:D 33.0357 
*END

*D_NET *15 0.000657458
*CONN
*I *1164:D I *D DFF_X1
*I *1033:ZN O *D NAND2_X1
*CAP
1 *1164:D 0.000126048
2 *1033:ZN 0.000126048
3 *1164:D *881:A2 7.19036e-06
4 *1164:D *1028:A1 7.72537e-06
5 *1164:D *1029:B1 1.89698e-05
6 *1164:D *1029:B2 6.37366e-05
7 *1164:D *1030:A1 0.000229402
8 *1164:D *1033:A1 3.22834e-06
9 *1164:D *1033:A2 0
10 *1164:D *1043:A1 1.72405e-05
11 *1164:D *1164:CK 4.07586e-05
12 *1164:D *657:10 1.7111e-05
*RES
1 *1033:ZN *1164:D 39.5 
*END

*D_NET *16 0.00072046
*CONN
*I *1165:D I *D DFF_X1
*I *1043:ZN O *D NAND2_X1
*CAP
1 *1165:D 0.00016638
2 *1043:ZN 0.00016638
3 *1165:D *1029:B2 1.70588e-05
4 *1165:D *1030:A1 0
5 *1165:D *1034:A2 0
6 *1165:D *1037:A2 0.00012631
7 *1165:D *1040:A2 2.16072e-07
8 *1165:D *1041:A2 2.52965e-06
9 *1165:D *1042:A 3.46864e-06
10 *1165:D *1042:B2 0
11 *1165:D *1043:A2 1.61164e-05
12 *1165:D *1312:A 4.60506e-05
13 *1165:D *1329:A 7.19036e-06